Version 4.1
SHEET 1 1288 680
WIRE 224 112 224 80
WIRE 192 128 176 128
WIRE 336 144 336 128
WIRE 336 144 256 144
WIRE -16 160 -160 160
WIRE 192 160 -16 160
WIRE 416 176 384 176
WIRE 560 192 480 192
WIRE 608 192 560 192
WIRE 656 192 624 192
WIRE 736 192 656 192
WIRE 832 192 736 192
WIRE 928 192 896 192
WIRE 1040 192 1008 192
WIRE 336 208 336 144
WIRE 416 208 336 208
WIRE 736 208 736 192
WIRE -16 224 -16 160
WIRE 176 256 176 128
WIRE 224 256 176 256
WIRE 240 256 224 256
WIRE 336 256 336 208
WIRE 336 256 320 256
WIRE 384 272 384 176
WIRE 448 272 384 272
WIRE 448 320 448 272
WIRE 480 320 448 320
WIRE 560 320 560 192
WIRE 560 320 544 320
WIRE 448 336 448 320
WIRE 224 352 224 256
WIRE 256 352 224 352
WIRE 336 352 336 256
WIRE 336 352 320 352
WIRE 176 368 176 256
WIRE 480 384 480 320
WIRE 544 384 480 384
WIRE 656 384 656 192
WIRE 656 384 624 384
FLAG 1040 192 post_processed_sig
FLAG 448 416 0
FLAG 736 272 0
FLAG 176 448 0
FLAG 336 48 0
FLAG -16 304 0
FLAG 224 176 0
FLAG 448 224 0
FLAG 224 0 0
FLAG 448 80 0
FLAG -160 160 SIPM_Sig
SYMBOL voltage -16 208 R0
WINDOW 3 -375 48 Left 2
WINDOW 123 0 0 Left 0
WINDOW 39 0 0 Left 0
SYMATTR Value PULSE(0 55m 0 .25u .25u 0 1 1)
SYMATTR InstName V1
SYMBOL OpAmps\\LT1807 224 80 R0
SYMATTR InstName U1
SYMBOL OpAmps\\LT1807 448 128 R0
SYMATTR InstName U2
SYMBOL diode 560 208 R270
WINDOW 0 32 32 VTop 2
WINDOW 3 0 32 VBottom 2
SYMATTR InstName D1
SYMBOL diode 480 336 R270
WINDOW 0 32 32 VTop 2
WINDOW 3 0 32 VBottom 2
SYMATTR InstName D2
SYMBOL res 432 320 R0
WINDOW 0 14 19 Right 2
WINDOW 3 0 47 Right 2
SYMATTR InstName R2
SYMATTR Value 100K
SYMATTR SpiceLine tol=1 pwr=0.1
SYMBOL res 640 368 R90
WINDOW 0 0 56 VBottom 2
WINDOW 3 32 56 VTop 2
SYMATTR InstName R3
SYMATTR Value 100K
SYMATTR SpiceLine tol=1 pwr=0.1
SYMBOL cap 720 208 R0
SYMATTR InstName C2
SYMATTR Value 20n
SYMBOL res 336 240 R90
WINDOW 0 0 56 VBottom 2
WINDOW 3 32 56 VTop 2
SYMATTR InstName R4
SYMATTR Value 10K
SYMATTR SpiceLine tol=1 pwr=0.1
SYMBOL res 160 352 R0
SYMATTR InstName R5
SYMATTR Value 249
SYMATTR SpiceLine tol=1 pwr=0.1
SYMBOL cap 320 336 R90
WINDOW 0 0 32 VBottom 2
WINDOW 3 32 32 VTop 2
SYMATTR InstName C3
SYMATTR Value 10p
SYMBOL res 320 32 R0
SYMATTR InstName R6
SYMATTR Value 10k
SYMBOL voltage 224 96 R180
WINDOW 0 24 96 Left 2
WINDOW 3 24 16 Left 2
WINDOW 123 0 0 Left 0
WINDOW 39 0 0 Left 0
SYMATTR InstName V2
SYMATTR Value 5
SYMBOL voltage 448 176 R180
WINDOW 0 24 96 Left 2
WINDOW 3 24 16 Left 2
WINDOW 123 0 0 Left 0
WINDOW 39 0 0 Left 0
SYMATTR InstName V3
SYMATTR Value 5
SYMBOL cap 896 176 R90
WINDOW 0 0 32 VBottom 2
WINDOW 3 32 32 VTop 2
SYMATTR InstName C1
SYMATTR Value 0
SYMBOL res 1024 176 R90
WINDOW 0 0 56 VBottom 2
WINDOW 3 32 56 VTop 2
SYMATTR InstName R1
SYMATTR Value 0
TEXT 928 112 Left 2 !.tran .5
